20
tauto -515.509339438
O   	    3.3322880000 	   -0.8435480000 	   -0.0838630000
C   	    2.1211240000 	   -0.2357810000 	   -0.0252310000
C   	    1.9878780000 	    1.1565710000 	    0.0376460000
C   	    0.6986130000 	    1.6667680000 	    0.0780480000
C   	   -0.4094620000 	    0.8239140000 	    0.0698790000
C   	   -1.8326720000 	    1.3342430000 	    0.0811500000
C   	   -2.7840280000 	    0.2416700000 	   -0.4177210000
C   	   -2.4386900000 	   -1.0703850000 	    0.2753120000
O   	   -1.1032840000 	   -1.4953360000 	   -0.0037900000
C   	   -0.1297260000 	   -0.5535000000 	    0.0198650000
N   	    1.0934670000 	   -1.0671640000 	   -0.0342030000
H   	    4.0192290000 	   -0.1689470000 	   -0.0708700000
H   	    2.8547160000 	    1.8085790000 	    0.0430190000
H   	    0.5460460000 	    2.7423860000 	    0.1086610000
H   	   -1.9163320000 	    2.2347310000 	   -0.5375130000
H   	   -2.1240730000 	    1.6334850000 	    1.0977420000
H   	   -2.6798360000 	    0.1107400000 	   -1.5008290000
H   	   -3.8280800000 	    0.5007180000 	   -0.2149720000
H   	   -3.0753970000 	   -1.8915190000 	   -0.0620770000
H   	   -2.5607850000 	   -0.9699490000 	    1.3637930000
