16
tauto -325.948722067
C   	    2.5151740000 	   -0.8324320000 	   -0.0000180000
C   	    1.2437860000 	   -0.0150360000 	   -0.0000680000
C   	   -0.0103880000 	   -0.7297830000 	    0.0002130000
C   	   -1.2084240000 	   -0.0715600000 	    0.0001980000
C   	   -2.5357640000 	   -0.7660740000 	   -0.0001920000
O   	   -1.2931440000 	    1.2480370000 	    0.0002230000
N   	    1.2332310000 	    1.2823330000 	   -0.0002060000
H   	    2.5520560000 	   -1.4839620000 	   -0.8798500000
H   	    2.5526100000 	   -1.4825720000 	    0.8808490000
H   	    3.4017710000 	   -0.1932640000 	   -0.0007370000
H   	   -0.0014700000 	   -1.8115820000 	    0.0003850000
H   	   -2.4219650000 	   -1.8512050000 	    0.0045180000
H   	   -3.1125310000 	   -0.4696050000 	   -0.8829920000
H   	   -3.1169150000 	   -0.4620110000 	    0.8770550000
H   	   -0.3302550000 	    1.5898050000 	    0.0000150000
H   	    2.1629290000 	    1.6930850000 	   -0.0003790000
